data/IEEETestCases/IEEE118Bus/ieee118bus_Power_elem_MVA.txt

CIRCUIT ELEMENT POWER FLOW

(Power Flow into element from indicated Bus)

Power Delivery Elements

  Bus        Phase     MW     +j   Mvar         MVA         PF

ELEMENT = "Vsource.SOURCE"
89_CLINCHRV      1      -202.4 +j      3.9      202.4      -0.9998
89_CLINCHRV      2      -202.4 +j      3.9      202.4      -0.9998
89_CLINCHRV      3      -202.4 +j      3.9      202.4      -0.9998
   TERMINAL TOTAL ....  -607.1 +j     11.8      607.3      -0.9998
89_CLINCHRV      0         0.0 +j      0.0        0.0       1.0000
89_CLINCHRV      0         0.0 +j      0.0        0.0       1.0000
89_CLINCHRV      0         0.0 +j      0.0        0.0       1.0000
   TERMINAL TOTAL ....     0.0 +j      0.0        0.0       1.0000

ELEMENT = "Line.1_2_1_1"
1_RIVERSDE       1        -4.1 +j     -4.3        6.0       0.6878
1_RIVERSDE       2        -4.1 +j     -4.3        6.0       0.6878
1_RIVERSDE       3        -4.1 +j     -4.3        6.0       0.6878
   TERMINAL TOTAL ....   -12.4 +j    -13.0       18.0       0.6878
2_POKAGON        1         4.2 +j      3.7        5.5       0.7493
2_POKAGON        2         4.2 +j      3.7        5.5       0.7493
2_POKAGON        3         4.2 +j      3.7        5.5       0.7493
   TERMINAL TOTAL ....    12.5 +j     11.0       16.6       0.7493

ELEMENT = "Line.1_3_1_1"
1_RIVERSDE       1       -12.9 +j     -5.7       14.1       0.9148
1_RIVERSDE       2       -12.9 +j     -5.7       14.1       0.9148
1_RIVERSDE       3       -12.9 +j     -5.7       14.1       0.9148
   TERMINAL TOTAL ....   -38.6 +j    -17.1       42.2       0.9148
3_HICKRYCK       1        13.0 +j      5.6       14.1       0.9173
3_HICKRYCK       2        13.0 +j      5.6       14.1       0.9173
3_HICKRYCK       3        13.0 +j      5.6       14.1       0.9173
   TERMINAL TOTAL ....    38.9 +j     16.9       42.4       0.9173

ELEMENT = "Line.2_12_1_1"
2_POKAGON        1       -10.8 +j     -6.7       12.7       0.8513
2_POKAGON        2       -10.8 +j     -6.7       12.7       0.8513
2_POKAGON        3       -10.8 +j     -6.7       12.7       0.8513
   TERMINAL TOTAL ....   -32.5 +j    -20.0       38.1       0.8513
12_TWINBRCH      1        10.9 +j      6.5       12.7       0.8600
12_TWINBRCH      2        10.9 +j      6.5       12.7       0.8600
12_TWINBRCH      3        10.9 +j      6.5       12.7       0.8600
   TERMINAL TOTAL ....    32.7 +j     19.4       38.1       0.8600

ELEMENT = "Line.3_5_1_1"
3_HICKRYCK       1       -22.7 +j     -4.8       23.2       0.9781
3_HICKRYCK       2       -22.7 +j     -4.8       23.2       0.9781
3_HICKRYCK       3       -22.7 +j     -4.8       23.2       0.9781
   TERMINAL TOTAL ....   -68.1 +j    -14.5       69.6       0.9781
5_OLIVE          1        23.1 +j      5.8       23.8       0.9703
5_OLIVE          2        23.1 +j      5.8       23.8       0.9703
5_OLIVE          3        23.1 +j      5.8       23.8       0.9703
   TERMINAL TOTAL ....    69.3 +j     17.3       71.5       0.9703

ELEMENT = "Line.3_12_1_1"
3_HICKRYCK       1        -3.3 +j     -4.1        5.3       0.6199
3_HICKRYCK       2        -3.3 +j     -4.1        5.3       0.6199
3_HICKRYCK       3        -3.3 +j     -4.1        5.3       0.6199
   TERMINAL TOTAL ....    -9.8 +j    -12.4       15.8       0.6199
12_TWINBRCH      1         3.3 +j      3.0        4.4       0.7452
12_TWINBRCH      2         3.3 +j      3.0        4.4       0.7452
12_TWINBRCH      3         3.3 +j      3.0        4.4       0.7452
   TERMINAL TOTAL ....     9.9 +j      8.9       13.3       0.7452

ELEMENT = "Line.4_5_1_1"
4_NWCARLSL       1       -34.4 +j     -8.9       35.5       0.9681
4_NWCARLSL       2       -34.4 +j     -8.9       35.5       0.9681
4_NWCARLSL       3       -34.4 +j     -8.9       35.5       0.9681
   TERMINAL TOTAL ....  -103.2 +j    -26.7      106.6       0.9681
5_OLIVE          1        34.5 +j      9.1       35.7       0.9666
5_OLIVE          2        34.5 +j      9.1       35.7       0.9666
5_OLIVE          3        34.5 +j      9.1       35.7       0.9666
   TERMINAL TOTAL ....   103.4 +j     27.4      107.0       0.9666

ELEMENT = "Line.4_11_1_1"
4_NWCARLSL       1        21.4 +j     -0.1       21.4      -1.0000
4_NWCARLSL       2        21.4 +j     -0.1       21.4      -1.0000
4_NWCARLSL       3        21.4 +j     -0.1       21.4      -1.0000
   TERMINAL TOTAL ....    64.2 +j     -0.2       64.2      -1.0000
11_SOUTHBND      1       -21.1 +j      0.4       21.1      -0.9998
11_SOUTHBND      2       -21.1 +j      0.4       21.1      -0.9998
11_SOUTHBND      3       -21.1 +j      0.4       21.1      -0.9998
   TERMINAL TOTAL ....   -63.3 +j      1.3       63.4      -0.9998

ELEMENT = "Line.5_6_1_1"
5_OLIVE          1        29.5 +j      1.4       29.5       0.9989
5_OLIVE          2        29.5 +j      1.4       29.5       0.9989
5_OLIVE          3        29.5 +j      1.4       29.5       0.9989
   TERMINAL TOTAL ....    88.5 +j      4.1       88.6       0.9989
6_KANKAKEE       1       -29.2 +j     -0.4       29.2       0.9999
6_KANKAKEE       2       -29.2 +j     -0.4       29.2       0.9999
6_KANKAKEE       3       -29.2 +j     -0.4       29.2       0.9999
   TERMINAL TOTAL ....   -87.5 +j     -1.3       87.5       0.9999

ELEMENT = "Line.5_11_1_1"
5_OLIVE          1        25.7 +j      1.0       25.8       0.9993
5_OLIVE          2        25.7 +j      1.0       25.8       0.9993
5_OLIVE          3        25.7 +j      1.0       25.8       0.9993
   TERMINAL TOTAL ....    77.2 +j      3.0       77.3       0.9993
11_SOUTHBND      1       -25.3 +j     -0.2       25.3       1.0000
11_SOUTHBND      2       -25.3 +j     -0.2       25.3       1.0000
11_SOUTHBND      3       -25.3 +j     -0.2       25.3       1.0000
   TERMINAL TOTAL ....   -76.0 +j     -0.6       76.0       1.0000

ELEMENT = "Line.6_7_1_1"
6_KANKAKEE       1        11.8 +j     -1.6       11.9      -0.9911
6_KANKAKEE       2        11.8 +j     -1.6       11.9      -0.9911
6_KANKAKEE       3        11.8 +j     -1.6       11.9      -0.9911
   TERMINAL TOTAL ....    35.5 +j     -4.8       35.8      -0.9911
7_JACKSNRD       1       -11.8 +j      1.5       11.9      -0.9920
7_JACKSNRD       2       -11.8 +j      1.5       11.9      -0.9920
7_JACKSNRD       3       -11.8 +j      1.5       11.9      -0.9920
   TERMINAL TOTAL ....   -35.5 +j      4.5       35.7      -0.9920

ELEMENT = "Line.7_12_1_1"
7_JACKSNRD       1         5.5 +j     -2.2        5.9      -0.9301
7_JACKSNRD       2         5.5 +j     -2.2        5.9      -0.9301
7_JACKSNRD       3         5.5 +j     -2.2        5.9      -0.9301
   TERMINAL TOTAL ....    16.5 +j     -6.5       17.7      -0.9301
12_TWINBRCH      1        -5.5 +j      1.9        5.8      -0.9439
12_TWINBRCH      2        -5.5 +j      1.9        5.8      -0.9439
12_TWINBRCH      3        -5.5 +j      1.9        5.8      -0.9439
   TERMINAL TOTAL ....   -16.4 +j      5.8       17.4      -0.9439

ELEMENT = "Line.8_9_1_1"
8_OLIVE          1      -146.9 +j    -29.9      149.9       0.9799
8_OLIVE          2      -146.9 +j    -29.9      149.9       0.9799
8_OLIVE          3      -146.9 +j    -29.9      149.9       0.9799
   TERMINAL TOTAL ....  -440.6 +j    -89.7      449.7       0.9799
9_BEQUINE        1       148.4 +j      8.1      148.6       0.9985
9_BEQUINE        2       148.4 +j      8.1      148.6       0.9985
9_BEQUINE        3       148.4 +j      8.1      148.6       0.9985
   TERMINAL TOTAL ....   445.3 +j     24.4      445.9       0.9985

ELEMENT = "Line.8_30_1_1"
8_OLIVE          1        24.7 +j      9.2       26.4       0.9367
8_OLIVE          2        24.7 +j      9.2       26.4       0.9367
8_OLIVE          3        24.7 +j      9.2       26.4       0.9367
   TERMINAL TOTAL ....    74.2 +j     27.7       79.2       0.9367
30_SORENSON      1       -24.6 +j    -25.0       35.1       0.7014
30_SORENSON      2       -24.6 +j    -25.0       35.1       0.7014
30_SORENSON      3       -24.6 +j    -25.0       35.1       0.7014
   TERMINAL TOTAL ....   -73.9 +j    -75.1      105.3       0.7014

ELEMENT = "Line.9_10_1_1"
9_BEQUINE        1      -148.4 +j     -8.1      148.6       0.9985
9_BEQUINE        2      -148.4 +j     -8.1      148.6       0.9985
9_BEQUINE        3      -148.4 +j     -8.1      148.6       0.9985
   TERMINAL TOTAL ....  -445.3 +j    -24.4      445.9       0.9985
10_BREED         1       150.0 +j    -17.0      151.0      -0.9936
10_BREED         2       150.0 +j    -17.0      151.0      -0.9936
10_BREED         3       150.0 +j    -17.0      151.0      -0.9936
   TERMINAL TOTAL ....   450.0 +j    -51.0      452.9      -0.9936

ELEMENT = "Line.11_12_1_1"
11_SOUTHBND      1        11.4 +j    -11.7       16.4      -0.6984
11_SOUTHBND      2        11.4 +j    -11.7       16.4      -0.6984
11_SOUTHBND      3        11.4 +j    -11.7       16.4      -0.6984
   TERMINAL TOTAL ....    34.3 +j    -35.1       49.1      -0.6984
12_TWINBRCH      1       -11.4 +j     11.7       16.3      -0.6969
12_TWINBRCH      2       -11.4 +j     11.7       16.3      -0.6969
12_TWINBRCH      3       -11.4 +j     11.7       16.3      -0.6969
   TERMINAL TOTAL ....   -34.1 +j     35.1       49.0      -0.6969

ELEMENT = "Line.11_13_1_1"
11_SOUTHBND      1        11.7 +j      3.8       12.3       0.9509
11_SOUTHBND      2        11.7 +j      3.8       12.3       0.9509
11_SOUTHBND      3        11.7 +j      3.8       12.3       0.9509
   TERMINAL TOTAL ....    35.1 +j     11.4       36.9       0.9509
13_CONCORD       1       -11.6 +j     -4.1       12.3       0.9438
13_CONCORD       2       -11.6 +j     -4.1       12.3       0.9438
13_CONCORD       3       -11.6 +j     -4.1       12.3       0.9438
   TERMINAL TOTAL ....   -34.7 +j    -12.2       36.8       0.9438

ELEMENT = "Line.12_14_1_1"
12_TWINBRCH      1         6.1 +j      0.9        6.2       0.9898
12_TWINBRCH      2         6.1 +j      0.9        6.2       0.9898
12_TWINBRCH      3         6.1 +j      0.9        6.2       0.9898
   TERMINAL TOTAL ....    18.3 +j      2.6       18.5       0.9898
14_GOSHENJT      1        -6.1 +j     -1.4        6.2       0.9750
14_GOSHENJT      2        -6.1 +j     -1.4        6.2       0.9750
14_GOSHENJT      3        -6.1 +j     -1.4        6.2       0.9750
   TERMINAL TOTAL ....   -18.2 +j     -4.1       18.7       0.9750

ELEMENT = "Line.12_16_1_1"
12_TWINBRCH      1         2.5 +j      1.4        2.9       0.8681
12_TWINBRCH      2         2.5 +j      1.4        2.9       0.8681
12_TWINBRCH      3         2.5 +j      1.4        2.9       0.8681
   TERMINAL TOTAL ....     7.5 +j      4.3        8.6       0.8681
16_NE            1        -2.5 +j     -2.1        3.3       0.7649
16_NE            2        -2.5 +j     -2.1        3.3       0.7649
16_NE            3        -2.5 +j     -2.1        3.3       0.7649
   TERMINAL TOTAL ....    -7.5 +j     -6.3        9.8       0.7649

ELEMENT = "Line.12_117_1_1"
12_TWINBRCH      1         6.7 +j      1.7        6.9       0.9683
12_TWINBRCH      2         6.7 +j      1.7        6.9       0.9683
12_TWINBRCH      3         6.7 +j      1.7        6.9       0.9683
   TERMINAL TOTAL ....    20.2 +j      5.2       20.8       0.9683
117_COREY        1        -6.7 +j     -2.7        7.2       0.9285
117_COREY        2        -6.7 +j     -2.7        7.2       0.9285
117_COREY        3        -6.7 +j     -2.7        7.2       0.9285
   TERMINAL TOTAL ....   -20.0 +j     -8.0       21.5       0.9285

ELEMENT = "Line.13_15_1_1"
13_CONCORD       1         0.2 +j     -1.3        1.3      -0.1903
13_CONCORD       2         0.2 +j     -1.3        1.3      -0.1903
13_CONCORD       3         0.2 +j     -1.3        1.3      -0.1903
   TERMINAL TOTAL ....     0.7 +j     -3.8        3.9      -0.1903
15_FTWAYNE       1        -0.2 +j     -0.7        0.7       0.3409
15_FTWAYNE       2        -0.2 +j     -0.7        0.7       0.3409
15_FTWAYNE       3        -0.2 +j     -0.7        0.7       0.3409
   TERMINAL TOTAL ....    -0.7 +j     -2.0        2.2       0.3409

ELEMENT = "Line.14_15_1_1"
14_GOSHENJT      1         1.4 +j      1.0        1.8       0.8007
14_GOSHENJT      2         1.4 +j      1.0        1.8       0.8007
14_GOSHENJT      3         1.4 +j      1.0        1.8       0.8007
   TERMINAL TOTAL ....     4.2 +j      3.1        5.3       0.8007
15_FTWAYNE       1        -1.4 +j     -2.6        3.0       0.4703
15_FTWAYNE       2        -1.4 +j     -2.6        3.0       0.4703
15_FTWAYNE       3        -1.4 +j     -2.6        3.0       0.4703
   TERMINAL TOTAL ....    -4.2 +j     -7.8        8.9       0.4703

ELEMENT = "Line.15_17_1_1"
15_FTWAYNE       1       -34.6 +j     -8.1       35.5       0.9734
15_FTWAYNE       2       -34.6 +j     -8.1       35.5       0.9734
15_FTWAYNE       3       -34.6 +j     -8.1       35.5       0.9734
   TERMINAL TOTAL ....  -103.7 +j    -24.4      106.5       0.9734
17_SORENSON      1        35.1 +j      8.4       36.1       0.9722
17_SORENSON      2        35.1 +j      8.4       36.1       0.9722
17_SORENSON      3        35.1 +j      8.4       36.1       0.9722
   TERMINAL TOTAL ....   105.3 +j     25.3      108.3       0.9722

ELEMENT = "Line.15_19_1_1"
15_FTWAYNE       1         3.8 +j      4.1        5.6       0.6819
15_FTWAYNE       2         3.8 +j      4.1        5.6       0.6819
15_FTWAYNE       3         3.8 +j      4.1        5.6       0.6819
   TERMINAL TOTAL ....    11.4 +j     12.2       16.7       0.6819
19_LINCOLN       1        -3.8 +j     -4.4        5.8       0.6567
19_LINCOLN       2        -3.8 +j     -4.4        5.8       0.6567
19_LINCOLN       3        -3.8 +j     -4.4        5.8       0.6567
   TERMINAL TOTAL ....   -11.4 +j    -13.1       17.3       0.6567

ELEMENT = "Line.15_33_1_1"
15_FTWAYNE       1         2.4 +j     -1.6        2.9      -0.8287
15_FTWAYNE       2         2.4 +j     -1.6        2.9      -0.8287
15_FTWAYNE       3         2.4 +j     -1.6        2.9      -0.8287
   TERMINAL TOTAL ....     7.2 +j     -4.9        8.7      -0.8287
33_HAVILAND      1        -2.4 +j      0.7        2.5      -0.9651
33_HAVILAND      2        -2.4 +j      0.7        2.5      -0.9651
33_HAVILAND      3        -2.4 +j      0.7        2.5      -0.9651
   TERMINAL TOTAL ....    -7.2 +j      2.0        7.5      -0.9651

ELEMENT = "Line.16_17_1_1"
16_NE            1        -5.8 +j     -1.2        6.0       0.9784
16_NE            2        -5.8 +j     -1.2        6.0       0.9784
16_NE            3        -5.8 +j     -1.2        6.0       0.9784
   TERMINAL TOTAL ....   -17.5 +j     -3.7       17.9       0.9784
17_SORENSON      1         5.9 +j     -0.1        5.9      -0.9999
17_SORENSON      2         5.9 +j     -0.1        5.9      -0.9999
17_SORENSON      3         5.9 +j     -0.1        5.9      -0.9999
   TERMINAL TOTAL ....    17.7 +j     -0.3       17.7      -0.9999

ELEMENT = "Line.17_18_1_1"
17_SORENSON      1        26.8 +j      8.3       28.0       0.9553
17_SORENSON      2        26.8 +j      8.3       28.0       0.9553
17_SORENSON      3        26.8 +j      8.3       28.0       0.9553
   TERMINAL TOTAL ....    80.3 +j     24.8       84.0       0.9553
18_MCKINLEY      1       -26.5 +j     -7.5       27.5       0.9622
18_MCKINLEY      2       -26.5 +j     -7.5       27.5       0.9622
18_MCKINLEY      3       -26.5 +j     -7.5       27.5       0.9622
   TERMINAL TOTAL ....   -79.4 +j    -22.5       82.5       0.9622

ELEMENT = "Line.17_31_1_1"
17_SORENSON      1         4.9 +j      3.8        6.2       0.7879
17_SORENSON      2         4.9 +j      3.8        6.2       0.7879
17_SORENSON      3         4.9 +j      3.8        6.2       0.7879
   TERMINAL TOTAL ....    14.8 +j     11.5       18.7       0.7879
31_DEERCRK       1        -4.9 +j     -4.9        6.9       0.7029
31_DEERCRK       2        -4.9 +j     -4.9        6.9       0.7029
31_DEERCRK       3        -4.9 +j     -4.9        6.9       0.7029
   TERMINAL TOTAL ....   -14.6 +j    -14.8       20.7       0.7029

ELEMENT = "Line.17_113_1_1"
17_SORENSON      1         0.7 +j      2.0        2.1       0.3230
17_SORENSON      2         0.7 +j      2.0        2.1       0.3230
17_SORENSON      3         0.7 +j      2.0        2.1       0.3230
   TERMINAL TOTAL ....     2.1 +j      6.0        6.4       0.3230
113_DEERCRK      1        -0.7 +j     -2.3        2.4       0.2901
113_DEERCRK      2        -0.7 +j     -2.3        2.4       0.2901
113_DEERCRK      3        -0.7 +j     -2.3        2.4       0.2901
   TERMINAL TOTAL ....    -2.1 +j     -6.8        7.1       0.2901

ELEMENT = "Line.18_19_1_1"
18_MCKINLEY      1         6.5 +j      4.7        8.0       0.8104
18_MCKINLEY      2         6.5 +j      4.7        8.0       0.8104
18_MCKINLEY      3         6.5 +j      4.7        8.0       0.8104
   TERMINAL TOTAL ....    19.4 +j     14.0       23.9       0.8104
19_LINCOLN       1        -6.4 +j     -4.9        8.1       0.7942
19_LINCOLN       2        -6.4 +j     -4.9        8.1       0.7942
19_LINCOLN       3        -6.4 +j     -4.9        8.1       0.7942
   TERMINAL TOTAL ....   -19.3 +j    -14.8       24.3       0.7942

ELEMENT = "Line.19_20_1_1"
19_LINCOLN       1        -3.5 +j      1.8        4.0      -0.8911
19_LINCOLN       2        -3.5 +j      1.8        4.0      -0.8911
19_LINCOLN       3        -3.5 +j      1.8        4.0      -0.8911
   TERMINAL TOTAL ....   -10.6 +j      5.4       12.0      -0.8911
20_ADAMS         1         3.6 +j     -2.7        4.4      -0.8017
20_ADAMS         2         3.6 +j     -2.7        4.4      -0.8017
20_ADAMS         3         3.6 +j     -2.7        4.4      -0.8017
   TERMINAL TOTAL ....    10.7 +j     -8.0       13.3      -0.8017

ELEMENT = "Line.19_34_1_1"
19_LINCOLN       1        -1.2 +j     -3.5        3.7       0.3276
19_LINCOLN       2        -1.2 +j     -3.5        3.7       0.3276
19_LINCOLN       3        -1.2 +j     -3.5        3.7       0.3276
   TERMINAL TOTAL ....    -3.7 +j    -10.6       11.2       0.3276
34_ROCKHILL      1         1.2 +j      1.6        2.0       0.6166
34_ROCKHILL      2         1.2 +j      1.6        2.0       0.6166
34_ROCKHILL      3         1.2 +j      1.6        2.0       0.6166
   TERMINAL TOTAL ....     3.7 +j      4.8        6.0       0.6166

ELEMENT = "Line.20_21_1_1"
20_ADAMS         1        -9.6 +j      1.7        9.7      -0.9853
20_ADAMS         2        -9.6 +j      1.7        9.7      -0.9853
20_ADAMS         3        -9.6 +j      1.7        9.7      -0.9853
   TERMINAL TOTAL ....   -28.7 +j      5.0       29.1      -0.9853
21_JAY           1         9.6 +j     -2.1        9.8      -0.9780
21_JAY           2         9.6 +j     -2.1        9.8      -0.9780
21_JAY           3         9.6 +j     -2.1        9.8      -0.9780
   TERMINAL TOTAL ....    28.9 +j     -6.2       29.5      -0.9780

ELEMENT = "Line.21_22_1_1"
21_JAY           1       -14.3 +j     -0.6       14.3       0.9991
21_JAY           2       -14.3 +j     -0.6       14.3       0.9991
21_JAY           3       -14.3 +j     -0.6       14.3       0.9991
   TERMINAL TOTAL ....   -42.9 +j     -1.8       42.9       0.9991
22_RANDOLPH      1        14.4 +j      0.5       14.4       0.9994
22_RANDOLPH      2        14.4 +j      0.5       14.4       0.9994
22_RANDOLPH      3        14.4 +j      0.5       14.4       0.9994
   TERMINAL TOTAL ....    43.3 +j      1.5       43.3       0.9994

ELEMENT = "Line.22_23_1_1"
22_RANDOLPH      1       -17.8 +j     -2.2       17.9       0.9927
22_RANDOLPH      2       -17.8 +j     -2.2       17.9       0.9927
22_RANDOLPH      3       -17.8 +j     -2.2       17.9       0.9927
   TERMINAL TOTAL ....   -53.3 +j     -6.5       53.7       0.9927
23_COLLCRNR      1        18.1 +j      2.5       18.3       0.9908
23_COLLCRNR      2        18.1 +j      2.5       18.3       0.9908
23_COLLCRNR      3        18.1 +j      2.5       18.3       0.9908
   TERMINAL TOTAL ....    54.3 +j      7.4       54.8       0.9908

ELEMENT = "Line.23_24_1_1"
23_COLLCRNR      1         2.8 +j      3.6        4.5       0.6090
23_COLLCRNR      2         2.8 +j      3.6        4.5       0.6090
23_COLLCRNR      3         2.8 +j      3.6        4.5       0.6090
   TERMINAL TOTAL ....     8.3 +j     10.8       13.6       0.6090
24_TRENTON       1        -2.8 +j     -5.2        5.9       0.4675
24_TRENTON       2        -2.8 +j     -5.2        5.9       0.4675
24_TRENTON       3        -2.8 +j     -5.2        5.9       0.4675
   TERMINAL TOTAL ....    -8.3 +j    -15.6       17.7       0.4675

ELEMENT = "Line.23_25_1_1"
23_COLLCRNR      1       -54.2 +j     -8.6       54.9       0.9875
23_COLLCRNR      2       -54.2 +j     -8.6       54.9       0.9875
23_COLLCRNR      3       -54.2 +j     -8.6       54.9       0.9875
   TERMINAL TOTAL ....  -162.6 +j    -25.9      164.7       0.9875
25_TANNRSCK      1        55.6 +j     12.8       57.1       0.9745
25_TANNRSCK      2        55.6 +j     12.8       57.1       0.9745
25_TANNRSCK      3        55.6 +j     12.8       57.1       0.9745
   TERMINAL TOTAL ....   166.8 +j     38.4      171.2       0.9745

ELEMENT = "Line.23_32_1_1"
23_COLLCRNR      1        31.0 +j      1.6       31.0       0.9987
23_COLLCRNR      2        31.0 +j      1.6       31.0       0.9987
23_COLLCRNR      3        31.0 +j      1.6       31.0       0.9987
   TERMINAL TOTAL ....    93.0 +j      4.7       93.1       0.9987
32_DELAWARE      1       -30.1 +j     -2.0       30.1       0.9979
32_DELAWARE      2       -30.1 +j     -2.0       30.1       0.9979
32_DELAWARE      3       -30.1 +j     -2.0       30.1       0.9979
   TERMINAL TOTAL ....   -90.2 +j     -5.9       90.4       0.9979

ELEMENT = "Line.24_70_1_1"
24_TRENTON       1        -2.1 +j     -1.0        2.3       0.9019
24_TRENTON       2        -2.1 +j     -1.0        2.3       0.9019
24_TRENTON       3        -2.1 +j     -1.0        2.3       0.9019
   TERMINAL TOTAL ....    -6.2 +j     -3.0        6.9       0.9019
70_PORTSMTH      1         2.1 +j     -2.3        3.1      -0.6744
70_PORTSMTH      2         2.1 +j     -2.3        3.1      -0.6744
70_PORTSMTH      3         2.1 +j     -2.3        3.1      -0.6744
   TERMINAL TOTAL ....     6.2 +j     -6.8        9.2      -0.6744

ELEMENT = "Line.24_72_1_1"
24_TRENTON       1         0.5 +j      1.1        1.2       0.4064
24_TRENTON       2         0.5 +j      1.1        1.2       0.4064
24_TRENTON       3         0.5 +j      1.1        1.2       0.4064
   TERMINAL TOTAL ....     1.5 +j      3.3        3.6       0.4064
72_HILLSBRO      1        -0.5 +j     -2.7        2.7       0.1791
72_HILLSBRO      2        -0.5 +j     -2.7        2.7       0.1791
72_HILLSBRO      3        -0.5 +j     -2.7        2.7       0.1791
   TERMINAL TOTAL ....    -1.5 +j     -8.0        8.1       0.1791

ELEMENT = "Line.25_27_1_1"
25_TANNRSCK      1        47.8 +j     10.0       48.9       0.9788
25_TANNRSCK      2        47.8 +j     10.0       48.9       0.9788
25_TANNRSCK      3        47.8 +j     10.0       48.9       0.9788
   TERMINAL TOTAL ....   143.5 +j     30.1      146.6       0.9788
27_MADISON       1       -45.7 +j     -5.1       46.0       0.9939
27_MADISON       2       -45.7 +j     -5.1       46.0       0.9939
27_MADISON       3       -45.7 +j     -5.1       46.0       0.9939
   TERMINAL TOTAL ....  -137.1 +j    -15.3      137.9       0.9939

ELEMENT = "Line.26_30_1_1"
26_TANNRSCK      1        74.6 +j     -3.9       74.7      -0.9986
26_TANNRSCK      2        74.6 +j     -3.9       74.7      -0.9986
26_TANNRSCK      3        74.6 +j     -3.9       74.7      -0.9986
   TERMINAL TOTAL ....   223.7 +j    -11.7      224.0      -0.9986
30_SORENSON      1       -73.2 +j    -12.1       74.2       0.9866
30_SORENSON      2       -73.2 +j    -12.1       74.2       0.9866
30_SORENSON      3       -73.2 +j    -12.1       74.2       0.9866
   TERMINAL TOTAL ....  -219.7 +j    -36.4      222.7       0.9866

ELEMENT = "Line.27_28_1_1"
27_MADISON       1        11.0 +j     -0.2       11.0      -0.9998
27_MADISON       2        11.0 +j     -0.2       11.0      -0.9998
27_MADISON       3        11.0 +j     -0.2       11.0      -0.9998
   TERMINAL TOTAL ....    32.9 +j     -0.6       32.9      -0.9998
28_MULLIN        1       -10.9 +j     -0.1       10.9       0.9999
28_MULLIN        2       -10.9 +j     -0.1       10.9       0.9999
28_MULLIN        3       -10.9 +j     -0.1       10.9       0.9999
   TERMINAL TOTAL ....   -32.6 +j     -0.4       32.6       0.9999

ELEMENT = "Line.27_32_1_1"
27_MADISON       1         4.2 +j      0.3        4.2       0.9967
27_MADISON       2         4.2 +j      0.3        4.2       0.9967
27_MADISON       3         4.2 +j      0.3        4.2       0.9967
   TERMINAL TOTAL ....    12.5 +j      1.0       12.5       0.9967
32_DELAWARE      1        -4.2 +j     -0.9        4.2       0.9775
32_DELAWARE      2        -4.2 +j     -0.9        4.2       0.9775
32_DELAWARE      3        -4.2 +j     -0.9        4.2       0.9775
   TERMINAL TOTAL ....   -12.5 +j     -2.7       12.7       0.9775

ELEMENT = "Line.27_115_1_1"
27_MADISON       1         6.9 +j      1.6        7.1       0.9756
27_MADISON       2         6.9 +j      1.6        7.1       0.9756
27_MADISON       3         6.9 +j      1.6        7.1       0.9756
   TERMINAL TOTAL ....    20.7 +j      4.7       21.3       0.9756
115_MEDFORD      1        -6.9 +j     -2.0        7.2       0.9586
115_MEDFORD      2        -6.9 +j     -2.0        7.2       0.9586
115_MEDFORD      3        -6.9 +j     -2.0        7.2       0.9586
   TERMINAL TOTAL ....   -20.7 +j     -6.1       21.5       0.9586

ELEMENT = "Line.28_29_1_1"
28_MULLIN        1         5.2 +j     -2.2        5.7      -0.9221
28_MULLIN        2         5.2 +j     -2.2        5.7      -0.9221
28_MULLIN        3         5.2 +j     -2.2        5.7      -0.9221
   TERMINAL TOTAL ....    15.6 +j     -6.6       17.0      -0.9221
29_GRANT         1        -5.2 +j      1.5        5.4      -0.9584
29_GRANT         2        -5.2 +j      1.5        5.4      -0.9584
29_GRANT         3        -5.2 +j      1.5        5.4      -0.9584
   TERMINAL TOTAL ....   -15.6 +j      4.6       16.2      -0.9584

ELEMENT = "Line.29_31_1_1"
29_GRANT         1        -2.8 +j     -2.9        4.0       0.6985
29_GRANT         2        -2.8 +j     -2.9        4.0       0.6985
29_GRANT         3        -2.8 +j     -2.9        4.0       0.6985
   TERMINAL TOTAL ....    -8.4 +j     -8.6       12.1       0.6985
31_DEERCRK       1         2.8 +j      2.6        3.9       0.7298
31_DEERCRK       2         2.8 +j      2.6        3.9       0.7298
31_DEERCRK       3         2.8 +j      2.6        3.9       0.7298
   TERMINAL TOTAL ....     8.4 +j      7.9       11.6       0.7298

ELEMENT = "Line.30_38_1_1"
30_SORENSON      1        20.8 +j      6.0       21.7       0.9606
30_SORENSON      2        20.8 +j      6.0       21.7       0.9606
30_SORENSON      3        20.8 +j      6.0       21.7       0.9606
   TERMINAL TOTAL ....    62.5 +j     18.1       65.1       0.9606
38_EASTLIMA      1       -20.8 +j    -18.4       27.7       0.7489
38_EASTLIMA      2       -20.8 +j    -18.4       27.7       0.7489
38_EASTLIMA      3       -20.8 +j    -18.4       27.7       0.7489
   TERMINAL TOTAL ....   -62.3 +j    -55.1       83.1       0.7489

ELEMENT = "Line.31_32_1_1"
31_DEERCRK       1       -10.0 +j      3.9       10.7      -0.9299
31_DEERCRK       2       -10.0 +j      3.9       10.7      -0.9299
31_DEERCRK       3       -10.0 +j      3.9       10.7      -0.9299
   TERMINAL TOTAL ....   -29.9 +j     11.8       32.1      -0.9299
32_DELAWARE      1        10.1 +j     -4.3       11.0      -0.9182
32_DELAWARE      2        10.1 +j     -4.3       11.0      -0.9182
32_DELAWARE      3        10.1 +j     -4.3       11.0      -0.9182
   TERMINAL TOTAL ....    30.2 +j    -13.0       32.9      -0.9182

ELEMENT = "Line.32_113_1_1"
32_DELAWARE      1         1.4 +j     -5.8        6.0      -0.2282
32_DELAWARE      2         1.4 +j     -5.8        6.0      -0.2282
32_DELAWARE      3         1.4 +j     -5.8        6.0      -0.2282
   TERMINAL TOTAL ....     4.1 +j    -17.5       18.0      -0.2282
113_DEERCRK      1        -1.3 +j      4.4        4.6      -0.2882
113_DEERCRK      2        -1.3 +j      4.4        4.6      -0.2882
113_DEERCRK      3        -1.3 +j      4.4        4.6      -0.2882
   TERMINAL TOTAL ....    -3.9 +j     13.1       13.7      -0.2882

ELEMENT = "Line.32_114_1_1"
32_DELAWARE      1         3.1 +j      0.7        3.2       0.9742
32_DELAWARE      2         3.1 +j      0.7        3.2       0.9742
32_DELAWARE      3         3.1 +j      0.7        3.2       0.9742
   TERMINAL TOTAL ....     9.4 +j      2.2        9.6       0.9742
114_WMEDFORD     1        -3.1 +j     -1.2        3.3       0.9328
114_WMEDFORD     2        -3.1 +j     -1.2        3.3       0.9328
114_WMEDFORD     3        -3.1 +j     -1.2        3.3       0.9328
   TERMINAL TOTAL ....    -9.3 +j     -3.6       10.0       0.9328

ELEMENT = "Line.33_37_1_1"
33_HAVILAND      1        -5.3 +j     -3.7        6.4       0.8217
33_HAVILAND      2        -5.3 +j     -3.7        6.4       0.8217
33_HAVILAND      3        -5.3 +j     -3.7        6.4       0.8217
   TERMINAL TOTAL ....   -15.8 +j    -11.0       19.2       0.8217
37_EASTLIMA      1         5.3 +j      2.6        5.9       0.8954
37_EASTLIMA      2         5.3 +j      2.6        5.9       0.8954
37_EASTLIMA      3         5.3 +j      2.6        5.9       0.8954
   TERMINAL TOTAL ....    15.9 +j      7.9       17.8       0.8954

ELEMENT = "Line.34_36_1_1"
34_ROCKHILL      1        10.1 +j      3.8       10.8       0.9355
34_ROCKHILL      2        10.1 +j      3.8       10.8       0.9355
34_ROCKHILL      3        10.1 +j      3.8       10.8       0.9355
   TERMINAL TOTAL ....    30.4 +j     11.5       32.5       0.9355
36_STERLING      1       -10.1 +j     -3.9       10.8       0.9325
36_STERLING      2       -10.1 +j     -3.9       10.8       0.9325
36_STERLING      3       -10.1 +j     -3.9       10.8       0.9325
   TERMINAL TOTAL ....   -30.3 +j    -11.7       32.5       0.9325

ELEMENT = "Line.34_37_1_1"
34_ROCKHILL      1       -31.5 +j    -12.9       34.0       0.9260
34_ROCKHILL      2       -31.5 +j    -12.9       34.0       0.9260
34_ROCKHILL      3       -31.5 +j    -12.9       34.0       0.9260
   TERMINAL TOTAL ....   -94.6 +j    -38.6      102.1       0.9260
37_EASTLIMA      1        31.6 +j     12.9       34.1       0.9262
37_EASTLIMA      2        31.6 +j     12.9       34.1       0.9262
37_EASTLIMA      3        31.6 +j     12.9       34.1       0.9262
   TERMINAL TOTAL ....    94.9 +j     38.6      102.4       0.9262

ELEMENT = "Line.34_43_1_1"
34_ROCKHILL      1         0.5 +j      0.6        0.8       0.5989
34_ROCKHILL      2         0.5 +j      0.6        0.8       0.5989
34_ROCKHILL      3         0.5 +j      0.6        0.8       0.5989
   TERMINAL TOTAL ....     1.4 +j      1.9        2.4       0.5989
43_SKENTON       1        -0.5 +j     -2.0        2.0       0.2329
43_SKENTON       2        -0.5 +j     -2.0        2.0       0.2329
43_SKENTON       3        -0.5 +j     -2.0        2.0       0.2329
   TERMINAL TOTAL ....    -1.4 +j     -6.0        6.1       0.2329

ELEMENT = "Line.35_36_1_1"
35_WESTLIMA      1         0.2 +j      2.1        2.1       0.1069
35_WESTLIMA      2         0.2 +j      2.1        2.1       0.1069
35_WESTLIMA      3         0.2 +j      2.1        2.1       0.1069
   TERMINAL TOTAL ....     0.7 +j      6.2        6.3       0.1069
36_STERLING      1        -0.2 +j     -2.2        2.2       0.1026
36_STERLING      2        -0.2 +j     -2.2        2.2       0.1026
36_STERLING      3        -0.2 +j     -2.2        2.2       0.1026
   TERMINAL TOTAL ....    -0.7 +j     -6.5        6.5       0.1026

ELEMENT = "Line.35_37_1_1"
35_WESTLIMA      1       -11.2 +j     -5.1       12.3       0.9110
35_WESTLIMA      2       -11.2 +j     -5.1       12.3       0.9110
35_WESTLIMA      3       -11.2 +j     -5.1       12.3       0.9110
   TERMINAL TOTAL ....   -33.7 +j    -15.2       37.0       0.9110
37_EASTLIMA      1        11.3 +j      4.9       12.3       0.9176
37_EASTLIMA      2        11.3 +j      4.9       12.3       0.9176
37_EASTLIMA      3        11.3 +j      4.9       12.3       0.9176
   TERMINAL TOTAL ....    33.8 +j     14.7       36.9       0.9176

ELEMENT = "Line.37_39_1_1"
37_EASTLIMA      1        18.3 +j      1.2       18.4       0.9977
37_EASTLIMA      2        18.3 +j      1.2       18.4       0.9977
37_EASTLIMA      3        18.3 +j      1.2       18.4       0.9977
   TERMINAL TOTAL ....    55.0 +j      3.7       55.1       0.9977
39_NWLIBRTY      1       -18.0 +j     -1.0       18.0       0.9984
39_NWLIBRTY      2       -18.0 +j     -1.0       18.0       0.9984
39_NWLIBRTY      3       -18.0 +j     -1.0       18.0       0.9984
   TERMINAL TOTAL ....   -54.0 +j     -3.1       54.1       0.9984

ELEMENT = "Line.37_40_1_1"
37_EASTLIMA      1        14.7 +j     -1.0       14.7      -0.9978
37_EASTLIMA      2        14.7 +j     -1.0       14.7      -0.9978
37_EASTLIMA      3        14.7 +j     -1.0       14.7      -0.9978
   TERMINAL TOTAL ....    44.1 +j     -2.9       44.2      -0.9978
40_WESTEND       1       -14.3 +j      0.7       14.3      -0.9987
40_WESTEND       2       -14.3 +j      0.7       14.3      -0.9987
40_WESTEND       3       -14.3 +j      0.7       14.3      -0.9987
   TERMINAL TOTAL ....   -42.9 +j      2.2       43.0      -0.9987

ELEMENT = "Line.38_65_1_1"
38_EASTLIMA      1       -60.5 +j    -19.0       63.4       0.9540
38_EASTLIMA      2       -60.5 +j    -19.0       63.4       0.9540
38_EASTLIMA      3       -60.5 +j    -19.0       63.4       0.9540
   TERMINAL TOTAL ....  -181.4 +j    -57.0      190.2       0.9540
65_MUSKNGUM      1        61.5 +j     -3.0       61.6      -0.9988
65_MUSKNGUM      2        61.5 +j     -3.0       61.6      -0.9988
65_MUSKNGUM      3        61.5 +j     -3.0       61.6      -0.9988
   TERMINAL TOTAL ....   184.6 +j     -9.1      184.9      -0.9988

ELEMENT = "Line.39_40_1_1"
39_NWLIBRTY      1         9.0 +j     -2.6        9.4      -0.9593
39_NWLIBRTY      2         9.0 +j     -2.6        9.4      -0.9593
39_NWLIBRTY      3         9.0 +j     -2.6        9.4      -0.9593
   TERMINAL TOTAL ....    27.0 +j     -7.9       28.1      -0.9593
40_WESTEND       1        -8.9 +j      2.3        9.2      -0.9678
40_WESTEND       2        -8.9 +j      2.3        9.2      -0.9678
40_WESTEND       3        -8.9 +j      2.3        9.2      -0.9678
   TERMINAL TOTAL ....   -26.8 +j      7.0       27.7      -0.9678

ELEMENT = "Line.40_41_1_1"
40_WESTEND       1         5.2 +j      0.4        5.2       0.9972
40_WESTEND       2         5.2 +j      0.4        5.2       0.9972
40_WESTEND       3         5.2 +j      0.4        5.2       0.9972
   TERMINAL TOTAL ....    15.5 +j      1.2       15.6       0.9972
41_STIFFIN       1        -5.2 +j     -0.7        5.2       0.9901
41_STIFFIN       2        -5.2 +j     -0.7        5.2       0.9901
41_STIFFIN       3        -5.2 +j     -0.7        5.2       0.9901
   TERMINAL TOTAL ....   -15.5 +j     -2.2       15.6       0.9901

ELEMENT = "Line.40_42_1_1"
40_WESTEND       1        -3.9 +j     -2.2        4.5       0.8764
40_WESTEND       2        -3.9 +j     -2.2        4.5       0.8764
40_WESTEND       3        -3.9 +j     -2.2        4.5       0.8764
   TERMINAL TOTAL ....   -11.8 +j     -6.5       13.4       0.8764
42_HOWARD        1         4.0 +j      0.8        4.0       0.9814
42_HOWARD        2         4.0 +j      0.8        4.0       0.9814
42_HOWARD        3         4.0 +j      0.8        4.0       0.9814
   TERMINAL TOTAL ....    11.9 +j      2.3       12.1       0.9814

ELEMENT = "Line.41_42_1_1"
41_STIFFIN       1        -7.2 +j     -2.6        7.6       0.9401
41_STIFFIN       2        -7.2 +j     -2.6        7.6       0.9401
41_STIFFIN       3        -7.2 +j     -2.6        7.6       0.9401
   TERMINAL TOTAL ....   -21.5 +j     -7.8       22.9       0.9401
42_HOWARD        1         7.2 +j      1.8        7.5       0.9720
42_HOWARD        2         7.2 +j      1.8        7.5       0.9720
42_HOWARD        3         7.2 +j      1.8        7.5       0.9720
   TERMINAL TOTAL ....    21.7 +j      5.3       22.4       0.9720

ELEMENT = "Line.42_49_1_1"
42_HOWARD        1       -21.6 +j      1.7       21.7      -0.9968
42_HOWARD        2       -21.6 +j      1.7       21.7      -0.9968
42_HOWARD        3       -21.6 +j      1.7       21.7      -0.9968
   TERMINAL TOTAL ....   -64.8 +j      5.2       65.0      -0.9968
49_PHILO         1        22.7 +j      0.1       22.7       1.0000
49_PHILO         2        22.7 +j      0.1       22.7       1.0000
49_PHILO         3        22.7 +j      0.1       22.7       1.0000
   TERMINAL TOTAL ....    68.0 +j      0.4       68.0       1.0000

ELEMENT = "Line.42_49_1_2"
42_HOWARD        1       -21.6 +j      1.7       21.7      -0.9968
42_HOWARD        2       -21.6 +j      1.7       21.7      -0.9968
42_HOWARD        3       -21.6 +j      1.7       21.7      -0.9968
   TERMINAL TOTAL ....   -64.8 +j      5.2       65.0      -0.9968
49_PHILO         1        22.7 +j      0.1       22.7       1.0000
49_PHILO         2        22.7 +j      0.1       22.7       1.0000
49_PHILO         3        22.7 +j      0.1       22.7       1.0000
   TERMINAL TOTAL ....    68.0 +j      0.4       68.0       1.0000

ELEMENT = "Line.43_44_1_1"
43_SKENTON       1        -5.5 +j     -0.3        5.5       0.9981
43_SKENTON       2        -5.5 +j     -0.3        5.5       0.9981
43_SKENTON       3        -5.5 +j     -0.3        5.5       0.9981
   TERMINAL TOTAL ....   -16.6 +j     -1.0       16.6       0.9981
44_WMVERNON      1         5.6 +j     -1.4        5.7      -0.9713
44_WMVERNON      2         5.6 +j     -1.4        5.7      -0.9713
44_WMVERNON      3         5.6 +j     -1.4        5.7      -0.9713
   TERMINAL TOTAL ....    16.7 +j     -4.1       17.2      -0.9713

ELEMENT = "Line.44_45_1_1"
44_WMVERNON      1       -10.9 +j      1.9       11.1      -0.9846
44_WMVERNON      2       -10.9 +j      1.9       11.1      -0.9846
44_WMVERNON      3       -10.9 +j      1.9       11.1      -0.9846
   TERMINAL TOTAL ....   -32.7 +j      5.8       33.3      -0.9846
45_NNEWARK       1        11.0 +j     -2.3       11.2      -0.9786
45_NNEWARK       2        11.0 +j     -2.3       11.2      -0.9786
45_NNEWARK       3        11.0 +j     -2.3       11.2      -0.9786
   TERMINAL TOTAL ....    33.0 +j     -6.9       33.7      -0.9786

ELEMENT = "Line.45_46_1_1"
45_NNEWARK       1       -12.1 +j     -1.1       12.2       0.9957
45_NNEWARK       2       -12.1 +j     -1.1       12.2       0.9957
45_NNEWARK       3       -12.1 +j     -1.1       12.2       0.9957
   TERMINAL TOTAL ....   -36.3 +j     -3.4       36.5       0.9957
46_WLANCST       1        12.3 +j      0.6       12.3       0.9986
46_WLANCST       2        12.3 +j      0.6       12.3       0.9986
46_WLANCST       3        12.3 +j      0.6       12.3       0.9986
   TERMINAL TOTAL ....    36.9 +j      1.9       36.9       0.9986

ELEMENT = "Line.45_49_1_1"
45_NNEWARK       1       -16.6 +j     -0.6       16.6       0.9992
45_NNEWARK       2       -16.6 +j     -0.6       16.6       0.9992
45_NNEWARK       3       -16.6 +j     -0.6       16.6       0.9992
   TERMINAL TOTAL ....   -49.7 +j     -1.9       49.7       0.9992
49_PHILO         1        17.1 +j      0.7       17.2       0.9991
49_PHILO         2        17.1 +j      0.7       17.2       0.9991
49_PHILO         3        17.1 +j      0.7       17.2       0.9991
   TERMINAL TOTAL ....    51.4 +j      2.2       51.5       0.9991

ELEMENT = "Line.46_47_1_1"
46_WLANCST       1       -10.4 +j     -0.4       10.4       0.9992
46_WLANCST       2       -10.4 +j     -0.4       10.4       0.9992
46_WLANCST       3       -10.4 +j     -0.4       10.4       0.9992
   TERMINAL TOTAL ....   -31.1 +j     -1.2       31.1       0.9992
47_CROOKSVL      1        10.5 +j     -0.3       10.5      -0.9997
47_CROOKSVL      2        10.5 +j     -0.3       10.5      -0.9997
47_CROOKSVL      3        10.5 +j     -0.3       10.5      -0.9997
   TERMINAL TOTAL ....    31.5 +j     -0.8       31.5      -0.9997

ELEMENT = "Line.46_48_1_1"
46_WLANCST       1        -4.9 +j     -1.9        5.3       0.9301
46_WLANCST       2        -4.9 +j     -1.9        5.3       0.9301
46_WLANCST       3        -4.9 +j     -1.9        5.3       0.9301
   TERMINAL TOTAL ....   -14.8 +j     -5.8       15.9       0.9301
48_ZANESVLL      1         5.0 +j      0.5        5.0       0.9955
48_ZANESVLL      2         5.0 +j      0.5        5.0       0.9955
48_ZANESVLL      3         5.0 +j      0.5        5.0       0.9955
   TERMINAL TOTAL ....    14.9 +j      1.4       15.0       0.9955

ELEMENT = "Line.47_49_1_1"
47_CROOKSVL      1        -3.2 +j     -3.6        4.8       0.6617
47_CROOKSVL      2        -3.2 +j     -3.6        4.8       0.6617
47_CROOKSVL      3        -3.2 +j     -3.6        4.8       0.6617
   TERMINAL TOTAL ....    -9.6 +j    -10.8       14.4       0.6617
49_PHILO         1         3.2 +j      3.1        4.4       0.7190
49_PHILO         2         3.2 +j      3.1        4.4       0.7190
49_PHILO         3         3.2 +j      3.1        4.4       0.7190
   TERMINAL TOTAL ....     9.6 +j      9.3       13.3       0.7190

ELEMENT = "Line.47_69_1_1"
47_CROOKSVL      1       -18.6 +j      3.9       19.0      -0.9791
47_CROOKSVL      2       -18.6 +j      3.9       19.0      -0.9791
47_CROOKSVL      3       -18.6 +j      3.9       19.0      -0.9791
   TERMINAL TOTAL ....   -55.9 +j     11.6       57.1      -0.9791
69_SPORN         1        19.5 +j     -3.4       19.8      -0.9856
69_SPORN         2        19.5 +j     -3.4       19.8      -0.9856
69_SPORN         3        19.5 +j     -3.4       19.8      -0.9856
   TERMINAL TOTAL ....    58.6 +j    -10.1       59.5      -0.9856

ELEMENT = "Line.48_49_1_1"
48_ZANESVLL      1       -11.6 +j      1.1       11.7      -0.9958
48_ZANESVLL      2       -11.6 +j      1.1       11.7      -0.9958
48_ZANESVLL      3       -11.6 +j      1.1       11.7      -0.9958
   TERMINAL TOTAL ....   -34.9 +j      3.2       35.0      -0.9958
49_PHILO         1        11.7 +j     -1.3       11.8      -0.9938
49_PHILO         2        11.7 +j     -1.3       11.8      -0.9938
49_PHILO         3        11.7 +j     -1.3       11.8      -0.9938
   TERMINAL TOTAL ....    35.1 +j     -3.9       35.3      -0.9938

ELEMENT = "Line.49_50_1_1"
49_PHILO         1        17.9 +j      4.5       18.4       0.9701
49_PHILO         2        17.9 +j      4.5       18.4       0.9701
49_PHILO         3        17.9 +j      4.5       18.4       0.9701
   TERMINAL TOTAL ....    53.7 +j     13.4       55.3       0.9701
50_WCAMBRDG      1       -17.6 +j     -4.4       18.2       0.9705
50_WCAMBRDG      2       -17.6 +j     -4.4       18.2       0.9705
50_WCAMBRDG      3       -17.6 +j     -4.4       18.2       0.9705
   TERMINAL TOTAL ....   -52.9 +j    -13.1       54.5       0.9705

ELEMENT = "Line.49_51_1_1"
49_PHILO         1        22.2 +j      6.8       23.2       0.9560
49_PHILO         2        22.2 +j      6.8       23.2       0.9560
49_PHILO         3        22.2 +j      6.8       23.2       0.9560
   TERMINAL TOTAL ....    66.6 +j     20.4       69.7       0.9560
51_NEWCMRST      1       -21.5 +j     -5.8       22.2       0.9653
51_NEWCMRST      2       -21.5 +j     -5.8       22.2       0.9653
51_NEWCMRST      3       -21.5 +j     -5.8       22.2       0.9653
   TERMINAL TOTAL ....   -64.4 +j    -17.4       66.7       0.9653

ELEMENT = "Line.49_54_1_1"
49_PHILO         1        12.6 +j      4.4       13.3       0.9450
49_PHILO         2        12.6 +j      4.4       13.3       0.9450
49_PHILO         3        12.6 +j      4.4       13.3       0.9450
   TERMINAL TOTAL ....    37.8 +j     13.1       40.0       0.9450
54_TORREY        1       -12.2 +j     -5.2       13.3       0.9199
54_TORREY        2       -12.2 +j     -5.2       13.3       0.9199
54_TORREY        3       -12.2 +j     -5.2       13.3       0.9199
   TERMINAL TOTAL ....   -36.6 +j    -15.6       39.8       0.9199

ELEMENT = "Line.49_54_1_2"
49_PHILO         1        12.6 +j      3.7       13.1       0.9587
49_PHILO         2        12.6 +j      3.7       13.1       0.9587
49_PHILO         3        12.6 +j      3.7       13.1       0.9587
   TERMINAL TOTAL ....    37.8 +j     11.2       39.4       0.9587
54_TORREY        1       -12.1 +j     -4.6       13.0       0.9351
54_TORREY        2       -12.1 +j     -4.6       13.0       0.9351
54_TORREY        3       -12.1 +j     -4.6       13.0       0.9351
   TERMINAL TOTAL ....   -36.4 +j    -13.8       38.9       0.9351

ELEMENT = "Line.49_66_1_1"
49_PHILO         1       -44.1 +j      1.4       44.1      -0.9995
49_PHILO         2       -44.1 +j      1.4       44.1      -0.9995
49_PHILO         3       -44.1 +j      1.4       44.1      -0.9995
   TERMINAL TOTAL ....  -132.2 +j      4.3      132.3      -0.9995
66_MUSKNGUM      1        45.1 +j      2.8       45.1       0.9981
66_MUSKNGUM      2        45.1 +j      2.8       45.1       0.9981
66_MUSKNGUM      3        45.1 +j      2.8       45.1       0.9981
   TERMINAL TOTAL ....   135.2 +j      8.3      135.4       0.9981

ELEMENT = "Line.49_66_1_2"
49_PHILO         1       -44.1 +j      1.4       44.1      -0.9995
49_PHILO         2       -44.1 +j      1.4       44.1      -0.9995
49_PHILO         3       -44.1 +j      1.4       44.1      -0.9995
   TERMINAL TOTAL ....  -132.2 +j      4.3      132.3      -0.9995
66_MUSKNGUM      1        45.1 +j      2.8       45.1       0.9981
66_MUSKNGUM      2        45.1 +j      2.8       45.1       0.9981
66_MUSKNGUM      3        45.1 +j      2.8       45.1       0.9981
   TERMINAL TOTAL ....   135.2 +j      8.3      135.4       0.9981

ELEMENT = "Line.49_69_1_1"
49_PHILO         1       -15.5 +j      3.5       15.9      -0.9749
49_PHILO         2       -15.5 +j      3.5       15.9      -0.9749
49_PHILO         3       -15.5 +j      3.5       15.9      -0.9749
   TERMINAL TOTAL ....   -46.5 +j     10.6       47.7      -0.9749
69_SPORN         1        16.2 +j     -4.0       16.7      -0.9708
69_SPORN         2        16.2 +j     -4.0       16.7      -0.9708
69_SPORN         3        16.2 +j     -4.0       16.7      -0.9708
   TERMINAL TOTAL ....    48.7 +j    -12.1       50.2      -0.9708

ELEMENT = "Line.50_57_1_1"
50_WCAMBRDG      1        12.0 +j      3.0       12.3       0.9691
50_WCAMBRDG      2        12.0 +j      3.0       12.3       0.9691
50_WCAMBRDG      3        12.0 +j      3.0       12.3       0.9691
   TERMINAL TOTAL ....    35.9 +j      9.1       37.0       0.9691
57_WNWPHIL1      1       -11.7 +j     -3.5       12.2       0.9584
57_WNWPHIL1      2       -11.7 +j     -3.5       12.2       0.9584
57_WNWPHIL1      3       -11.7 +j     -3.5       12.2       0.9584
   TERMINAL TOTAL ....   -35.2 +j    -10.5       36.7       0.9584

ELEMENT = "Line.51_52_1_1"
51_NEWCMRST      1         9.5 +j      2.1        9.7       0.9769
51_NEWCMRST      2         9.5 +j      2.1        9.7       0.9769
51_NEWCMRST      3         9.5 +j      2.1        9.7       0.9769
   TERMINAL TOTAL ....    28.6 +j      6.2       29.2       0.9769
52_SCOSHOCT      1        -9.5 +j     -2.3        9.7       0.9709
52_SCOSHOCT      2        -9.5 +j     -2.3        9.7       0.9709
52_SCOSHOCT      3        -9.5 +j     -2.3        9.7       0.9709
   TERMINAL TOTAL ....   -28.4 +j     -7.0       29.2       0.9709

ELEMENT = "Line.51_58_1_1"
51_NEWCMRST      1         6.3 +j      1.1        6.4       0.9862
51_NEWCMRST      2         6.3 +j      1.1        6.4       0.9862
51_NEWCMRST      3         6.3 +j      1.1        6.4       0.9862
   TERMINAL TOTAL ....    18.8 +j      3.2       19.1       0.9862
58_WNWPHIL2      1        -6.2 +j     -1.5        6.4       0.9719
58_WNWPHIL2      2        -6.2 +j     -1.5        6.4       0.9719
58_WNWPHIL2      3        -6.2 +j     -1.5        6.4       0.9719
   TERMINAL TOTAL ....   -18.7 +j     -4.5       19.2       0.9719

ELEMENT = "Line.52_53_1_1"
52_SCOSHOCT      1         3.5 +j      0.7        3.5       0.9820
52_SCOSHOCT      2         3.5 +j      0.7        3.5       0.9820
52_SCOSHOCT      3         3.5 +j      0.7        3.5       0.9820
   TERMINAL TOTAL ....    10.4 +j      2.0       10.6       0.9820
53_WOOSTER       1        -3.4 +j     -1.8        3.9       0.8843
53_WOOSTER       2        -3.4 +j     -1.8        3.9       0.8843
53_WOOSTER       3        -3.4 +j     -1.8        3.9       0.8843
   TERMINAL TOTAL ....   -10.3 +j     -5.4       11.7       0.8843

ELEMENT = "Line.53_54_1_1"
53_WOOSTER       1        -4.2 +j     -1.9        4.6       0.9160
53_WOOSTER       2        -4.2 +j     -1.9        4.6       0.9160
53_WOOSTER       3        -4.2 +j     -1.9        4.6       0.9160
   TERMINAL TOTAL ....   -12.7 +j     -5.6       13.8       0.9160
54_TORREY        1         4.2 +j      1.0        4.4       0.9734
54_TORREY        2         4.2 +j      1.0        4.4       0.9734
54_TORREY        3         4.2 +j      1.0        4.4       0.9734
   TERMINAL TOTAL ....    12.7 +j      3.0       13.1       0.9734

ELEMENT = "Line.54_55_1_1"
54_TORREY        1         2.4 +j      0.5        2.4       0.9795
54_TORREY        2         2.4 +j      0.5        2.4       0.9795
54_TORREY        3         2.4 +j      0.5        2.4       0.9795
   TERMINAL TOTAL ....     7.1 +j      1.5        7.2       0.9795
55_WAGENHLS      1        -2.4 +j     -1.1        2.6       0.9085
55_WAGENHLS      2        -2.4 +j     -1.1        2.6       0.9085
55_WAGENHLS      3        -2.4 +j     -1.1        2.6       0.9085
   TERMINAL TOTAL ....    -7.1 +j     -3.2        7.8       0.9085

ELEMENT = "Line.54_56_1_1"
54_TORREY        1         6.2 +j      1.4        6.3       0.9736
54_TORREY        2         6.2 +j      1.4        6.3       0.9736
54_TORREY        3         6.2 +j      1.4        6.3       0.9736
   TERMINAL TOTAL ....    18.5 +j      4.3       19.0       0.9736
56_SUNNYSDE      1        -6.2 +j     -1.7        6.4       0.9658
56_SUNNYSDE      2        -6.2 +j     -1.7        6.4       0.9658
56_SUNNYSDE      3        -6.2 +j     -1.7        6.4       0.9658
   TERMINAL TOTAL ....   -18.5 +j     -5.0       19.2       0.9658

ELEMENT = "Line.54_59_1_1"
54_TORREY        1       -10.1 +j     -2.5       10.4       0.9708
54_TORREY        2       -10.1 +j     -2.5       10.4       0.9708
54_TORREY        3       -10.1 +j     -2.5       10.4       0.9708
   TERMINAL TOTAL ....   -30.4 +j     -7.5       31.3       0.9708
59_TIDD          1        10.3 +j      1.4       10.4       0.9906
59_TIDD          2        10.3 +j      1.4       10.4       0.9906
59_TIDD          3        10.3 +j      1.4       10.4       0.9906
   TERMINAL TOTAL ....    30.9 +j      4.3       31.2       0.9906

ELEMENT = "Line.55_56_1_1"
55_WAGENHLS      1        -7.1 +j     -1.9        7.4       0.9650
55_WAGENHLS      2        -7.1 +j     -1.9        7.4       0.9650
55_WAGENHLS      3        -7.1 +j     -1.9        7.4       0.9650
   TERMINAL TOTAL ....   -21.4 +j     -5.8       22.2       0.9650
56_SUNNYSDE      1         7.2 +j      1.9        7.4       0.9680
56_SUNNYSDE      2         7.2 +j      1.9        7.4       0.9680
56_SUNNYSDE      3         7.2 +j      1.9        7.4       0.9680
   TERMINAL TOTAL ....    21.5 +j      5.6       22.2       0.9680

ELEMENT = "Line.55_59_1_1"
55_WAGENHLS      1       -11.5 +j     -2.8       11.8       0.9725
55_WAGENHLS      2       -11.5 +j     -2.8       11.8       0.9725
55_WAGENHLS      3       -11.5 +j     -2.8       11.8       0.9725
   TERMINAL TOTAL ....   -34.5 +j     -8.3       35.5       0.9725
59_TIDD          1        11.7 +j      2.0       11.9       0.9863
59_TIDD          2        11.7 +j      2.0       11.9       0.9863
59_TIDD          3        11.7 +j      2.0       11.9       0.9863
   TERMINAL TOTAL ....    35.1 +j      5.9       35.6       0.9863

ELEMENT = "Line.56_57_1_1"
56_SUNNYSDE      1        -7.7 +j     -3.0        8.2       0.9298
56_SUNNYSDE      2        -7.7 +j     -3.0        8.2       0.9298
56_SUNNYSDE      3        -7.7 +j     -3.0        8.2       0.9298
   TERMINAL TOTAL ....   -23.0 +j     -9.1       24.7       0.9298
57_WNWPHIL1      1         7.7 +j      2.5        8.1       0.9517
57_WNWPHIL1      2         7.7 +j      2.5        8.1       0.9517
57_WNWPHIL1      3         7.7 +j      2.5        8.1       0.9517
   TERMINAL TOTAL ....    23.2 +j      7.5       24.4       0.9517

ELEMENT = "Line.56_58_1_1"
56_SUNNYSDE      1        -2.2 +j     -1.2        2.5       0.8750
56_SUNNYSDE      2        -2.2 +j     -1.2        2.5       0.8750
56_SUNNYSDE      3        -2.2 +j     -1.2        2.5       0.8750
   TERMINAL TOTAL ....    -6.7 +j     -3.7        7.6       0.8750
58_WNWPHIL2      1         2.2 +j      0.5        2.3       0.9748
58_WNWPHIL2      2         2.2 +j      0.5        2.3       0.9748
58_WNWPHIL2      3         2.2 +j      0.5        2.3       0.9748
   TERMINAL TOTAL ....     6.7 +j      1.5        6.9       0.9748

ELEMENT = "Line.56_59_1_1"
56_SUNNYSDE      1        -9.3 +j     -1.4        9.4       0.9890
56_SUNNYSDE      2        -9.3 +j     -1.4        9.4       0.9890
56_SUNNYSDE      3        -9.3 +j     -1.4        9.4       0.9890
   TERMINAL TOTAL ....   -28.0 +j     -4.2       28.3       0.9890
59_TIDD          1         9.6 +j      0.3        9.6       0.9994
59_TIDD          2         9.6 +j      0.3        9.6       0.9994
59_TIDD          3         9.6 +j      0.3        9.6       0.9994
   TERMINAL TOTAL ....    28.7 +j      1.0       28.7       0.9994

ELEMENT = "Line.56_59_1_2"
56_SUNNYSDE      1        -9.8 +j     -1.3        9.9       0.9912
56_SUNNYSDE      2        -9.8 +j     -1.3        9.9       0.9912
56_SUNNYSDE      3        -9.8 +j     -1.3        9.9       0.9912
   TERMINAL TOTAL ....   -29.3 +j     -3.9       29.6       0.9912
59_TIDD          1        10.0 +j      0.4       10.0       0.9993
59_TIDD          2        10.0 +j      0.4       10.0       0.9993
59_TIDD          3        10.0 +j      0.4       10.0       0.9993
   TERMINAL TOTAL ....    30.1 +j      1.1       30.1       0.9993

ELEMENT = "Line.59_60_1_1"
59_TIDD          1       -14.4 +j      1.2       14.5      -0.9966
59_TIDD          2       -14.4 +j      1.2       14.5      -0.9966
59_TIDD          3       -14.4 +j      1.2       14.5      -0.9966
   TERMINAL TOTAL ....   -43.3 +j      3.6       43.5      -0.9966
60_SWKAMMER      1        14.6 +j     -1.5       14.7      -0.9950
60_SWKAMMER      2        14.6 +j     -1.5       14.7      -0.9950
60_SWKAMMER      3        14.6 +j     -1.5       14.7      -0.9950
   TERMINAL TOTAL ....    43.9 +j     -4.4       44.2      -0.9950

ELEMENT = "Line.59_61_1_1"
59_TIDD          1       -17.2 +j      1.7       17.3      -0.9953
59_TIDD          2       -17.2 +j      1.7       17.3      -0.9953
59_TIDD          3       -17.2 +j      1.7       17.3      -0.9953
   TERMINAL TOTAL ....   -51.7 +j      5.0       52.0      -0.9953
61_WKAMMER       1        17.5 +j     -1.5       17.6      -0.9962
61_WKAMMER       2        17.5 +j     -1.5       17.6      -0.9962
61_WKAMMER       3        17.5 +j     -1.5       17.6      -0.9962
   TERMINAL TOTAL ....    52.6 +j     -4.6       52.8      -0.9962

ELEMENT = "Line.60_61_1_1"
60_SWKAMMER      1       -37.4 +j      2.8       37.5      -0.9971
60_SWKAMMER      2       -37.4 +j      2.8       37.5      -0.9971
60_SWKAMMER      3       -37.4 +j      2.8       37.5      -0.9971
   TERMINAL TOTAL ....  -112.1 +j      8.5      112.4      -0.9971
61_WKAMMER       1        37.5 +j     -2.7       37.6      -0.9973
61_WKAMMER       2        37.5 +j     -2.7       37.6      -0.9973
61_WKAMMER       3        37.5 +j     -2.7       37.6      -0.9973
   TERMINAL TOTAL ....   112.4 +j     -8.2      112.7      -0.9973

ELEMENT = "Line.60_62_1_1"
60_SWKAMMER      1        -3.3 +j     -2.4        4.1       0.8114
60_SWKAMMER      2        -3.3 +j     -2.4        4.1       0.8114
60_SWKAMMER      3        -3.3 +j     -2.4        4.1       0.8114
   TERMINAL TOTAL ....    -9.9 +j     -7.1       12.2       0.8114
62_NATRIUM       1         3.3 +j      1.9        3.8       0.8650
62_NATRIUM       2         3.3 +j      1.9        3.8       0.8650
62_NATRIUM       3         3.3 +j      1.9        3.8       0.8650
   TERMINAL TOTAL ....     9.9 +j      5.7       11.4       0.8650

ELEMENT = "Line.61_62_1_1"
61_WKAMMER       1         8.5 +j     -4.6        9.7      -0.8785
61_WKAMMER       2         8.5 +j     -4.6        9.7      -0.8785
61_WKAMMER       3         8.5 +j     -4.6        9.7      -0.8785
   TERMINAL TOTAL ....    25.5 +j    -13.9       29.0      -0.8785
62_NATRIUM       1        -8.5 +j      4.4        9.5      -0.8875
62_NATRIUM       2        -8.5 +j      4.4        9.5      -0.8875
62_NATRIUM       3        -8.5 +j      4.4        9.5      -0.8875
   TERMINAL TOTAL ....   -25.4 +j     13.2       28.6      -0.8875

ELEMENT = "Line.62_66_1_1"
62_NATRIUM       1       -12.4 +j     -5.8       13.7       0.9069
62_NATRIUM       2       -12.4 +j     -5.8       13.7       0.9069
62_NATRIUM       3       -12.4 +j     -5.8       13.7       0.9069
   TERMINAL TOTAL ....   -37.2 +j    -17.3       41.0       0.9069
66_MUSKNGUM      1        12.6 +j      4.9       13.6       0.9326
66_MUSKNGUM      2        12.6 +j      4.9       13.6       0.9326
66_MUSKNGUM      3        12.6 +j      4.9       13.6       0.9326
   TERMINAL TOTAL ....    37.9 +j     14.7       40.7       0.9326

ELEMENT = "Line.62_67_1_1"
62_NATRIUM       1        -8.1 +j     -4.8        9.4       0.8602
62_NATRIUM       2        -8.1 +j     -4.8        9.4       0.8602
62_NATRIUM       3        -8.1 +j     -4.8        9.4       0.8602
   TERMINAL TOTAL ....   -24.3 +j    -14.4       28.3       0.8602
67_SUMMERFL      1         8.2 +j      4.0        9.1       0.8960
67_SUMMERFL      2         8.2 +j      4.0        9.1       0.8960
67_SUMMERFL      3         8.2 +j      4.0        9.1       0.8960
   TERMINAL TOTAL ....    24.5 +j     12.1       27.3       0.8960

ELEMENT = "Line.63_64_1_1"
63_TIDD          1       -50.6 +j    -22.5       55.4       0.9138
63_TIDD          2       -50.6 +j    -22.5       55.4       0.9138
63_TIDD          3       -50.6 +j    -22.5       55.4       0.9138
   TERMINAL TOTAL ....  -151.8 +j    -67.5      166.1       0.9138
64_KAMMER        1        50.7 +j     17.5       53.7       0.9454
64_KAMMER        2        50.7 +j     17.5       53.7       0.9454
64_KAMMER        3        50.7 +j     17.5       53.7       0.9454
   TERMINAL TOTAL ....   152.2 +j     52.5      161.0       0.9454

ELEMENT = "Line.64_65_1_1"
64_KAMMER        1       -60.9 +j    -22.2       64.8       0.9398
64_KAMMER        2       -60.9 +j    -22.2       64.8       0.9398
64_KAMMER        3       -60.9 +j    -22.2       64.8       0.9398
   TERMINAL TOTAL ....  -182.8 +j    -66.5      194.5       0.9398
65_MUSKNGUM      1        61.3 +j     13.3       62.7       0.9771
65_MUSKNGUM      2        61.3 +j     13.3       62.7       0.9771
65_MUSKNGUM      3        61.3 +j     13.3       62.7       0.9771
   TERMINAL TOTAL ....   183.8 +j     40.0      188.1       0.9771

ELEMENT = "Line.65_68_1_1"
65_MUSKNGUM      1         4.7 +j     -7.5        8.8      -0.5335
65_MUSKNGUM      2         4.7 +j     -7.5        8.8      -0.5335
65_MUSKNGUM      3         4.7 +j     -7.5        8.8      -0.5335
   TERMINAL TOTAL ....    14.1 +j    -22.4       26.5      -0.5335
68_SPORN         1        -4.7 +j    -14.0       14.7       0.3201
68_SPORN         2        -4.7 +j    -14.0       14.7       0.3201
68_SPORN         3        -4.7 +j    -14.0       14.7       0.3201
   TERMINAL TOTAL ....   -14.1 +j    -41.9       44.2       0.3201

ELEMENT = "Line.66_67_1_1"
...